  
       XFOIL         Version 6.99
  
 Calculated polar for: rootAirfoil                                     
  
 1 1 Reynolds number fixed          Mach number fixed         
  
 xtrf =   1.000 (top)        1.000 (bottom)  
 Mach =   0.100     Re =     1.243 e 6     Ncrit =   3.000
  
   alpha    CL        CD       CDp       CM     Top_Xtr  Bot_Xtr
  ------ -------- --------- --------- -------- -------- --------
   0.000  -0.0000   0.00815   0.00153   0.0000  -0.4203   0.1072   0.3645   0.3645
   0.500   0.0571   0.00817   0.00155  -0.0003  -0.4930   0.0784   0.3195   0.4103
   1.000   0.1142   0.00821   0.00159  -0.0005  -0.5794   0.0551   0.2770   0.4580
   1.500   0.1711   0.00828   0.00168  -0.0008  -0.6814   0.0379   0.2347   0.5082
   2.000   0.2279   0.00837   0.00179  -0.0010  -0.8061   0.0333   0.1971   0.5618
   2.500   0.2844   0.00848   0.00194  -0.0012  -0.9557   0.0144   0.1608   0.6192
   3.000   0.3407   0.00858   0.00213  -0.0012  -1.1496   0.0144   0.1305   0.6799
   3.500   0.3964   0.00876   0.00236  -0.0012  -1.3509   0.0144   0.0994   0.7415
   4.000   0.4516   0.00893   0.00263  -0.0010  -1.5607   0.0144   0.0773   0.8015
   4.500   0.5065   0.00913   0.00293  -0.0006  -1.7874   0.0122   0.0625   0.8543
   5.000   0.5609   0.00937   0.00325  -0.0001  -2.0246   0.0122   0.0521   0.8963
   5.500   0.6143   0.00969   0.00361   0.0007  -2.2707   0.0122   0.0436   0.9287
   6.000   0.6680   0.01006   0.00399   0.0013  -2.5270   0.0102   0.0363   0.9529
   6.500   0.7238   0.01048   0.00440   0.0015  -2.8093   0.0102   0.0310   0.9703
   7.000   0.7824   0.01094   0.00484   0.0009  -3.1101   0.0102   0.0278   0.9818
   7.500   0.8420   0.01144   0.00535  -0.0000  -3.4296   0.0085   0.0255   0.9892
   8.000   0.9013   0.01196   0.00588  -0.0009  -3.7722   0.0085   0.0239   0.9947
   9.000   1.0172   0.01315   0.00711  -0.0022  -4.5217   0.0056   0.0217   1.0000
   9.500   1.0659   0.01374   0.00774  -0.0008  -4.9067   0.0044   0.0209   1.0000
