  
       XFOIL         Version 6.99
  
 Calculated polar for: rootAirfoil                                     
  
 1 1 Reynolds number fixed          Mach number fixed         
  
 xtrf =   1.000 (top)        1.000 (bottom)  
 Mach =   0.202     Re =     2.522 e 6     Ncrit =   4.000
  
   alpha    CL        CD       CDp       CM     Top_Xtr  Bot_Xtr
  ------ -------- --------- --------- -------- -------- --------
   0.000   0.0001   0.00679   0.00061  -0.0000  -0.3397   0.0387   0.2319   0.2287
   0.500   0.0546   0.00672   0.00062   0.0005  -0.4891   0.0154   0.1603   0.3321
   1.000   0.1099   0.00672   0.00069   0.0009  -0.6680   0.0154   0.1132   0.4059
   1.500   0.1654   0.00672   0.00078   0.0014  -0.8603   0.0120   0.0804   0.4832
   2.000   0.2209   0.00672   0.00090   0.0019  -1.0847   0.0120   0.0561   0.5594
